*Heading
** Job name: Job-1 Model name: Model-1
** Generated by: Abaqus/CAE 2021
*Preprint, echo=NO, model=NO, history=NO, contact=NO
**
** PARTS
**
*Part, name=Part-1
*Node
      1,        -198.,         -50.,         530.
      2,        -200.,         -50.,         530.
      3,        -198.,         -50.,         525.
      4,        -200.,         -50.,         525.
      5,        -198.,         -50.,         520.
      6,        -200.,         -50.,         520.
      7,        -198.,         -50.,         515.
      8,        -200.,         -50.,         515.
      9,        -198.,         -50.,         510.
     10,        -200.,         -50.,         510.
     11,        -198.,         -50.,         505.
     12,        -200.,         -50.,         505.
     13,        -198.,         -50.,         500.
     14,        -200.,         -50.,         500.
     15,        -198.,         -50.,         495.
     16,        -200.,         -50.,         495.
     17,        -198.,         -50.,         490.
     18,        -200.,         -50.,         490.
     19,        -198.,         -50.,         485.
     20,        -200.,         -50.,         485.
** ... 4474 like lines cut
*Element, type=C3D8R
   1,  215,  216,  218,  217,    1,    2,    4,    3
   2,  217,  218,  220,  219,    3,    4,    6,    5
   3,  219,  220,  222,  221,    5,    6,    8,    7
   4,  221,  222,  224,  223,    7,    8,   10,    9
   5,  223,  224,  226,  225,    9,   10,   12,   11
   6,  225,  226,  228,  227,   11,   12,   14,   13
   7,  227,  228,  230,  229,   13,   14,   16,   15
   8,  229,  230,  232,  231,   15,   16,   18,   17
   9,  231,  232,  234,  233,   17,   18,   20,   19
  10,  233,  234,  236,  235,   19,   20,   22,   21
  11,  235,  236,  238,  237,   21,   22,   24,   23
  12,  237,  238,  240,  239,   23,   24,   26,   25
  13,  239,  240,  242,  241,   25,   26,   28,   27
  14,  241,  242,  244,  243,   27,   28,   30,   29
  15,  243,  244,  246,  245,   29,   30,   32,   31
  16,  245,  246,  248,  247,   31,   32,   34,   33
  17,  247,  248,  250,  249,   33,   34,   36,   35
  18,  249,  250,  252,  251,   35,   36,   38,   37
  19,  251,  252,  254,  253,   37,   38,   40,   39
  20,  253,  254,  256,  255,   39,   40,   42,   41
** ... 2100 like lines cut
*Nset, nset=_PickedSet2, internal, generate
    1,  4494,     1
*Elset, elset=_PickedSet2, internal, generate
    1,  2120,     1
** Section: Section-1
*Solid Section, elset=_PickedSet2, material=Material-1
,
*End Part
**  
*Part, name=Part-2
*Node
      1,        -351.,         -20.,          30.
      2,        -351.,         -15.,          30.
      3,        -351.,         -10.,          30.
      4,        -351.,          -5.,          30.
      5,        -351.,           0.,          30.
      6,        -351.,           5.,          30.
      7,        -351.,          10.,          30.
      8,        -351.,          15.,          30.
      9,        -351.,          20.,          30.
     10,        -351.,          25.,          30.
     11,        -351.,          30.,          30.
     12,        -351.,          35.,          30.
     13,        -351.,          40.,          30.
     14,        -351.,          45.,          30.
     15,        -351.,          50.,          30.
     16,        -351.,          55.,          30.
     17,        -351.,          60.,          30.
     18,        -351.,          65.,          30.
     19,        -351.,          70.,          30.
     20,        -351.,          75.,          30.
** ... 11740 like lines cut
*Element, type=C3D8R
   1,   148,   149,   170,   169,     1,     2,    23,    22
   2,   149,   150,   171,   170,     2,     3,    24,    23
   3,   150,   151,   172,   171,     3,     4,    25,    24
   4,   151,   152,   173,   172,     4,     5,    26,    25
   5,   152,   153,   174,   173,     5,     6,    27,    26
   6,   153,   154,   175,   174,     6,     7,    28,    27
   7,   154,   155,   176,   175,     7,     8,    29,    28
   8,   155,   156,   177,   176,     8,     9,    30,    29
   9,   156,   157,   178,   177,     9,    10,    31,    30
  10,   157,   158,   179,   178,    10,    11,    32,    31
  11,   158,   159,   180,   179,    11,    12,    33,    32
  12,   159,   160,   181,   180,    12,    13,    34,    33
  13,   160,   161,   182,   181,    13,    14,    35,    34
  14,   161,   162,   183,   182,    14,    15,    36,    35
  15,   162,   163,   184,   183,    15,    16,    37,    36
  16,   163,   164,   185,   184,    16,    17,    38,    37
  17,   164,   165,   186,   185,    17,    18,    39,    38
  18,   165,   166,   187,   186,    18,    19,    40,    39
  19,   166,   167,   188,   187,    19,    20,    41,    40
  20,   167,   168,   189,   188,    20,    21,    42,    41
** ... 9460 like lines cut
*Nset, nset=_PickedSet2, internal, generate
     1,  11760,      1
*Elset, elset=_PickedSet2, internal, generate
    1,  9480,     1
** Section: Section-1
*Solid Section, elset=_PickedSet2, material=Material-1
,
*End Part
**  
**
** ASSEMBLY
**
*Assembly, name=Assembly
**  
*Instance, name=Part-1-1, part=Part-1
*End Instance
**  
*Instance, name=Part-2-1, part=Part-2
        153.,         -30.,         500.
*End Instance
**  
*Instance, name=Part-1-2, part=Part-1
        398.,           0.,           0.
*End Instance
**  
*Node
      1,        -199.,           0.,           0.
*Node
      2,         199.,           0.,           0.
*Node
      3,           0.,           0.,         530.
*Nset, nset=Set-1
 1,
*Nset, nset=Set-2
 2,
*Nset, nset=Set-3
 3,
*Nset, nset=_PickedSet11, internal
 1,
*Nset, nset=_PickedSet13, internal
 2,
*Nset, nset=_PickedSet16, internal
 3,
*Nset, nset=_PickedSet17, internal
 1, 2
*Nset, nset=_PickedSet18, internal
 3,
*Elset, elset=__PickedSurf10_S5, internal, instance=Part-1-1, generate
  106,  2120,   106
*Surface, type=ELEMENT, name=_PickedSurf10, internal
__PickedSurf10_S5, S5
*Elset, elset=__PickedSurf12_S5, internal, instance=Part-1-2, generate
  106,  2120,   106
*Surface, type=ELEMENT, name=_PickedSurf12, internal
__PickedSurf12_S5, S5
*Elset, elset=__PickedSurf15_S3, internal, instance=Part-2-1
    1,    2,    3,    4,    5,    6,    7,    8,    9,   10,   11,   12,   13,   14,   15,   16
   17,   18,   19,   20,  121,  122,  123,  124,  125,  126,  127,  128,  129,  130,  131,  132
  133,  134,  135,  136,  137,  138,  139,  140,  241,  242,  243,  244,  245,  246,  247,  248
  249,  250,  251,  252,  253,  254,  255,  256,  257,  258,  259,  260,  361,  362,  363,  364
  365,  366,  367,  368,  369,  370,  371,  372,  373,  374,  375,  376,  377,  378,  379,  380
  481,  482,  483,  484,  485,  486,  487,  488,  489,  490,  491,  492,  493,  494,  495,  496
  497,  498,  499,  500,  601,  602,  603,  604,  605,  606,  607,  608,  609,  610,  611,  612
  613,  614,  615,  616,  617,  618,  619,  620,  721,  722,  723,  724,  725,  726,  727,  728
  729,  730,  731,  732,  733,  734,  735,  736,  737,  738,  739,  740,  841,  842,  843,  844
  845,  846,  847,  848,  849,  850,  851,  852,  853,  854,  855,  856,  857,  858,  859,  860
  961,  962,  963,  964,  965,  966,  967,  968,  969,  970,  971,  972,  973,  974,  975,  976
  977,  978,  979,  980, 1081, 1082, 1083, 1084, 1085, 1086, 1087, 1088, 1089, 1090, 1091, 1092
 1093, 1094, 1095, 1096, 1097, 1098, 1099, 1100, 1201, 1202, 1203, 1204, 1205, 1206, 1207, 1208
 1209, 1210, 1211, 1212, 1213, 1214, 1215, 1216, 1217, 1218, 1219, 1220, 1321, 1322, 1323, 1324
 1325, 1326, 1327, 1328, 1329, 1330, 1331, 1332, 1333, 1334, 1335, 1336, 1337, 1338, 1339, 1340
 1441, 1442, 1443, 1444, 1445, 1446, 1447, 1448, 1449, 1450, 1451, 1452, 1453, 1454, 1455, 1456
 1457, 1458, 1459, 1460, 1561, 1562, 1563, 1564, 1565, 1566, 1567, 1568, 1569, 1570, 1571, 1572
 1573, 1574, 1575, 1576, 1577, 1578, 1579, 1580, 1681, 1682, 1683, 1684, 1685, 1686, 1687, 1688
 1689, 1690, 1691, 1692, 1693, 1694, 1695, 1696, 1697, 1698, 1699, 1700, 1801, 1802, 1803, 1804
 1805, 1806, 1807, 1808, 1809, 1810, 1811, 1812, 1813, 1814, 1815, 1816, 1817, 1818, 1819, 1820
** ... 79 like lines cut
*Surface, type=ELEMENT, name=_PickedSurf15, internal
__PickedSurf15_S3, S3
*Elset, elset=__PickedSurf19_S2, internal, instance=Part-2-1, generate
   1,  120,    1
*Surface, type=ELEMENT, name=_PickedSurf19, internal
__PickedSurf19_S2, S2
*Elset, elset=__PickedSurf20_S6, internal, instance=Part-1-1, generate
    1,  2120,     1
*Surface, type=ELEMENT, name=_PickedSurf20, internal
__PickedSurf20_S6, S6
*Elset, elset=__PickedSurf21_S1, internal, instance=Part-2-1, generate
 9361,  9480,     1
*Surface, type=ELEMENT, name=_PickedSurf21, internal
__PickedSurf21_S1, S1
*Elset, elset=__PickedSurf22_S4, internal, instance=Part-1-2, generate
    1,  2120,     1
*Surface, type=ELEMENT, name=_PickedSurf22, internal
__PickedSurf22_S4, S4
** Constraint: Constraint-1
*Coupling, constraint name=Constraint-1, ref node=_PickedSet11, surface=_PickedSurf10
*Kinematic
** Constraint: Constraint-2
*Coupling, constraint name=Constraint-2, ref node=_PickedSet13, surface=_PickedSurf12
*Kinematic
** Constraint: Constraint-3
*Coupling, constraint name=Constraint-3, ref node=_PickedSet16, surface=_PickedSurf15
*Kinematic
** Constraint: Constraint-4
*Tie, name=Constraint-4, adjust=yes
_PickedSurf20, _PickedSurf19
** Constraint: Constraint-5
*Tie, name=Constraint-5, adjust=yes
_PickedSurf22, _PickedSurf21
*End Assembly
** 
** MATERIALS
** 
*Material, name=Material-1
*Elastic
206000., 0.3
*Plastic
235.,0.
** ----------------------------------------------------------------
** 
** STEP: Step-1
** 
*Step, name=Step-1, nlgeom=NO, inc=10000
*Static
0.001, 1., 1e-05, 1.
** 
** BOUNDARY CONDITIONS
** 
** Name: BC-1 Type: Symmetry/Antisymmetry/Encastre
*Boundary
_PickedSet17, ENCASTRE
** Name: BC-2 Type: Displacement/Rotation
*Boundary
_PickedSet18, 1, 1, 1.
** 
** OUTPUT REQUESTS
** 
*Restart, write, frequency=0
** 
** FIELD OUTPUT: F-Output-1
** 
*Output, field, variable=PRESELECT
** 
** HISTORY OUTPUT: H-Output-1
** 
*Output, history, variable=PRESELECT
*End Step
