*Heading
** Job name: Job-2 Model name: Model-2
** Generated by: Abaqus/CAE 2021
*Preprint, echo=NO, model=NO, history=NO, contact=NO
**
** PARTS
**
*Part, name=Part-1
*Node
      1,        46.25,         82.5,           0.
      2,        41.25,         82.5,           0.
      3,        36.25,         82.5,           0.
      4,        31.25,         82.5,           0.
      5,        26.25,         82.5,           0.
      6,        21.25,         82.5,           0.
      7,        16.25,         82.5,           0.
      8,        11.25,         82.5,           0.
      9,         6.25,         82.5,           0.
     10,         1.25,         82.5,           0.
     11,        -3.75,         82.5,           0.
     12,        -8.75,         82.5,           0.
     13,       -13.75,         82.5,           0.
     14,       -18.75,         82.5,           0.
     15,       -23.75,         82.5,           0.
     16,       -28.75,         82.5,           0.
     17,       -33.75,         82.5,           0.
     18,       -38.75,         82.5,           0.
     19,       -43.75,         82.5,           0.
     20,       -48.75,         82.5,           0.
** ... 2227 like lines cut
*Element, type=S4R
   1,    1,    2,  109,  108
   2,    2,    3,  110,  109
   3,    3,    4,  111,  110
   4,    4,    5,  112,  111
   5,    5,    6,  113,  112
   6,    6,    7,  114,  113
   7,    7,    8,  115,  114
   8,    8,    9,  116,  115
   9,    9,   10,  117,  116
  10,   10,   11,  118,  117
  11,   11,   12,  119,  118
  12,   12,   13,  120,  119
  13,   13,   14,  121,  120
  14,   14,   15,  122,  121
  15,   15,   16,  123,  122
  16,   16,   17,  124,  123
  17,   17,   18,  125,  124
  18,   18,   19,  126,  125
  19,   19,   20,  127,  126
  20,   20,   21,  128,  127
** ... 2100 like lines cut
*Nset, nset=_PickedSet2, internal, generate
    1,  2247,     1
*Elset, elset=_PickedSet2, internal, generate
    1,  2120,     1
** Section: Section-2
*Shell Section, elset=_PickedSet2, material=Material-1
2., 5
*End Part
**  
*Part, name=Part-2
*Node
      1,        -351.,         -20.,          30.
      2,        -351.,         -15.,          30.
      3,        -351.,         -10.,          30.
      4,        -351.,          -5.,          30.
      5,        -351.,           0.,          30.
      6,        -351.,           5.,          30.
      7,        -351.,          10.,          30.
      8,        -351.,          15.,          30.
      9,        -351.,          20.,          30.
     10,        -351.,          25.,          30.
     11,        -351.,          30.,          30.
     12,        -351.,          35.,          30.
     13,        -351.,          40.,          30.
     14,        -351.,          45.,          30.
     15,        -351.,          50.,          30.
     16,        -351.,          55.,          30.
     17,        -351.,          60.,          30.
     18,        -351.,          65.,          30.
     19,        -351.,          70.,          30.
     20,        -351.,          75.,          30.
** ... 11740 like lines cut
*Element, type=C3D8R
   1,   148,   149,   170,   169,     1,     2,    23,    22
   2,   149,   150,   171,   170,     2,     3,    24,    23
   3,   150,   151,   172,   171,     3,     4,    25,    24
   4,   151,   152,   173,   172,     4,     5,    26,    25
   5,   152,   153,   174,   173,     5,     6,    27,    26
   6,   153,   154,   175,   174,     6,     7,    28,    27
   7,   154,   155,   176,   175,     7,     8,    29,    28
   8,   155,   156,   177,   176,     8,     9,    30,    29
   9,   156,   157,   178,   177,     9,    10,    31,    30
  10,   157,   158,   179,   178,    10,    11,    32,    31
  11,   158,   159,   180,   179,    11,    12,    33,    32
  12,   159,   160,   181,   180,    12,    13,    34,    33
  13,   160,   161,   182,   181,    13,    14,    35,    34
  14,   161,   162,   183,   182,    14,    15,    36,    35
  15,   162,   163,   184,   183,    15,    16,    37,    36
  16,   163,   164,   185,   184,    16,    17,    38,    37
  17,   164,   165,   186,   185,    17,    18,    39,    38
  18,   165,   166,   187,   186,    18,    19,    40,    39
  19,   166,   167,   188,   187,    19,    20,    41,    40
  20,   167,   168,   189,   188,    20,    21,    42,    41
** ... 9460 like lines cut
*Nset, nset=_PickedSet2, internal, generate
     1,  11760,      1
*Elset, elset=_PickedSet2, internal, generate
    1,  9480,     1
** Section: Section-1
*Solid Section, elset=_PickedSet2, material=Material-1
,
*End Part
**  
**
** ASSEMBLY
**
*Assembly, name=Assembly
**  
*Instance, name=Part-1-1, part=Part-1
       -199.,        -32.5,       483.75
       -199.,        -32.5,       483.75,        -199., -33.5000000126881,       483.75, 89.9999992730282
*End Instance
**  
*Instance, name=Part-2-1, part=Part-2
        153.,         -30.,         500.
*End Instance
**  
*Instance, name=Part-1-2, part=Part-1
        199.,        -32.5,        46.25
        199.,        -32.5,        46.25,         199., -31.4999999873119,        46.25, 89.9999992730282
*End Instance
**  
*Node
      1,        -199.,           0.,           0.
*Node
      2,         199.,           0.,           0.
*Node
      3,           0.,           0.,         530.
*Nset, nset=Set-1
 1,
*Nset, nset=Set-2
 2,
*Nset, nset=Set-3
 3,
*Nset, nset=_PickedSet12, internal
 1,
*Nset, nset=_PickedSet14, internal
 2,
*Nset, nset=_PickedSet16, internal
 3,
*Nset, nset=_PickedSet21, internal
 1, 2
*Nset, nset=_PickedSet22, internal
 3,
*Elset, elset=__PickedSurf11_E2, internal, instance=Part-1-1, generate
  106,  2120,   106
*Surface, type=ELEMENT, name=_PickedSurf11, internal
__PickedSurf11_E2, E2
*Elset, elset=__PickedSurf13_E4, internal, instance=Part-1-2, generate
    1,  2015,   106
*Surface, type=ELEMENT, name=_PickedSurf13, internal
__PickedSurf13_E4, E4
*Elset, elset=__PickedSurf15_S3, internal, instance=Part-2-1
    1,    2,    3,    4,    5,    6,    7,    8,    9,   10,   11,   12,   13,   14,   15,   16
   17,   18,   19,   20,  121,  122,  123,  124,  125,  126,  127,  128,  129,  130,  131,  132
  133,  134,  135,  136,  137,  138,  139,  140,  241,  242,  243,  244,  245,  246,  247,  248
  249,  250,  251,  252,  253,  254,  255,  256,  257,  258,  259,  260,  361,  362,  363,  364
  365,  366,  367,  368,  369,  370,  371,  372,  373,  374,  375,  376,  377,  378,  379,  380
  481,  482,  483,  484,  485,  486,  487,  488,  489,  490,  491,  492,  493,  494,  495,  496
  497,  498,  499,  500,  601,  602,  603,  604,  605,  606,  607,  608,  609,  610,  611,  612
  613,  614,  615,  616,  617,  618,  619,  620,  721,  722,  723,  724,  725,  726,  727,  728
  729,  730,  731,  732,  733,  734,  735,  736,  737,  738,  739,  740,  841,  842,  843,  844
  845,  846,  847,  848,  849,  850,  851,  852,  853,  854,  855,  856,  857,  858,  859,  860
  961,  962,  963,  964,  965,  966,  967,  968,  969,  970,  971,  972,  973,  974,  975,  976
  977,  978,  979,  980, 1081, 1082, 1083, 1084, 1085, 1086, 1087, 1088, 1089, 1090, 1091, 1092
 1093, 1094, 1095, 1096, 1097, 1098, 1099, 1100, 1201, 1202, 1203, 1204, 1205, 1206, 1207, 1208
 1209, 1210, 1211, 1212, 1213, 1214, 1215, 1216, 1217, 1218, 1219, 1220, 1321, 1322, 1323, 1324
 1325, 1326, 1327, 1328, 1329, 1330, 1331, 1332, 1333, 1334, 1335, 1336, 1337, 1338, 1339, 1340
 1441, 1442, 1443, 1444, 1445, 1446, 1447, 1448, 1449, 1450, 1451, 1452, 1453, 1454, 1455, 1456
 1457, 1458, 1459, 1460, 1561, 1562, 1563, 1564, 1565, 1566, 1567, 1568, 1569, 1570, 1571, 1572
 1573, 1574, 1575, 1576, 1577, 1578, 1579, 1580, 1681, 1682, 1683, 1684, 1685, 1686, 1687, 1688
 1689, 1690, 1691, 1692, 1693, 1694, 1695, 1696, 1697, 1698, 1699, 1700, 1801, 1802, 1803, 1804
 1805, 1806, 1807, 1808, 1809, 1810, 1811, 1812, 1813, 1814, 1815, 1816, 1817, 1818, 1819, 1820
** ... 79 like lines cut
*Surface, type=ELEMENT, name=_PickedSurf15, internal
__PickedSurf15_S3, S3
*Elset, elset=__PickedSurf17_S2, internal, instance=Part-2-1, generate
   1,  120,    1
*Surface, type=ELEMENT, name=_PickedSurf17, internal
__PickedSurf17_S2, S2
*Elset, elset=__PickedSurf18_SNEG, internal, instance=Part-1-1, generate
    1,  2120,     1
*Surface, type=ELEMENT, name=_PickedSurf18, internal
__PickedSurf18_SNEG, SNEG
*Elset, elset=__PickedSurf19_S1, internal, instance=Part-2-1, generate
 9361,  9480,     1
*Surface, type=ELEMENT, name=_PickedSurf19, internal
__PickedSurf19_S1, S1
*Elset, elset=__PickedSurf20_SNEG, internal, instance=Part-1-2, generate
    1,  2120,     1
*Surface, type=ELEMENT, name=_PickedSurf20, internal
__PickedSurf20_SNEG, SNEG
** Constraint: Constraint-1
*Coupling, constraint name=Constraint-1, ref node=_PickedSet12, surface=_PickedSurf11
*Kinematic
** Constraint: Constraint-2
*Coupling, constraint name=Constraint-2, ref node=_PickedSet14, surface=_PickedSurf13
*Kinematic
** Constraint: Constraint-3
*Coupling, constraint name=Constraint-3, ref node=_PickedSet16, surface=_PickedSurf15
*Kinematic
** Constraint: Constraint-4
*Tie, name=Constraint-4, adjust=yes
_PickedSurf18, _PickedSurf17
** Constraint: Constraint-5
*Tie, name=Constraint-5, adjust=yes
_PickedSurf20, _PickedSurf19
*End Assembly
** 
** MATERIALS
** 
*Material, name=Material-1
*Elastic
206000., 0.3
*Plastic
235.,0.
** ----------------------------------------------------------------
** 
** STEP: Step-1
** 
*Step, name=Step-1, nlgeom=NO
*Static
0.001, 1., 1e-05, 1.
** 
** BOUNDARY CONDITIONS
** 
** Name: BC-1 Type: Displacement/Rotation
*Boundary
_PickedSet21, 1, 1
_PickedSet21, 2, 2
_PickedSet21, 3, 3
_PickedSet21, 4, 4
_PickedSet21, 5, 5
_PickedSet21, 6, 6
** Name: BC-2 Type: Displacement/Rotation
*Boundary
_PickedSet22, 1, 1, 1.
** 
** OUTPUT REQUESTS
** 
*Restart, write, frequency=0
** 
** FIELD OUTPUT: F-Output-1
** 
*Output, field, variable=PRESELECT
** 
** HISTORY OUTPUT: H-Output-1
** 
*Output, history, variable=PRESELECT
*End Step
